Version 4
SHEET 1 1116 680
WIRE -384 -256 -400 -256
WIRE -256 -256 -272 -256
WIRE -128 -256 -144 -256
WIRE -400 -208 -400 -256
WIRE -272 -208 -272 -256
WIRE -144 -208 -144 -256
WIRE -400 -96 -400 -128
WIRE -336 -96 -400 -96
WIRE -272 -96 -272 -128
WIRE -272 -96 -336 -96
WIRE -144 -96 -144 -128
WIRE -144 -96 -272 -96
WIRE -336 -80 -336 -96
WIRE 304 64 176 64
WIRE 528 64 384 64
WIRE 768 96 672 96
WIRE 768 128 768 96
WIRE 176 160 176 64
WIRE 208 160 176 160
WIRE 176 208 176 160
WIRE 320 208 176 208
WIRE 672 208 672 176
WIRE 672 208 416 208
WIRE 720 208 672 208
WIRE 768 208 768 192
WIRE 768 208 720 208
WIRE 464 240 416 240
WIRE 528 272 528 64
WIRE 528 272 416 272
WIRE 672 272 528 272
WIRE 720 272 672 272
WIRE 80 304 -16 304
WIRE 176 304 176 208
WIRE 176 304 160 304
WIRE 672 320 672 272
WIRE 720 320 672 320
WIRE 912 320 800 320
WIRE -16 336 -16 304
WIRE 464 368 464 240
FLAG 320 304 -5
IOPIN 320 304 BiDir
FLAG 320 272 +5
IOPIN 320 272 BiDir
FLAG 912 320 FF_out
IOPIN 912 320 Out
FLAG 208 160 INT_out
IOPIN 208 160 Out
FLAG 464 368 0
FLAG 320 240 Vbb
IOPIN 320 240 BiDir
FLAG 672 96 0
FLAG -336 -80 0
FLAG -384 -256 +5
IOPIN -384 -256 BiDir
FLAG -256 -256 -5
IOPIN -256 -256 BiDir
FLAG -16 416 0
FLAG -128 -256 Vbb
IOPIN -128 -256 BiDir
SYMBOL res 688 192 R180
WINDOW 0 36 76 Left 2
WINDOW 3 36 40 Left 2
SYMATTR InstName R1
SYMATTR Value 100k
SYMBOL res 64 320 R270
WINDOW 0 32 56 VTop 2
WINDOW 3 0 56 VBottom 2
SYMATTR InstName R2
SYMATTR Value 1
SYMBOL res 288 80 R270
WINDOW 0 32 56 VTop 2
WINDOW 3 0 56 VBottom 2
SYMATTR InstName R4
SYMATTR Value 5Meg
SYMBOL cap 784 192 R180
WINDOW 0 24 56 Left 2
WINDOW 3 24 8 Left 2
SYMATTR InstName C1
SYMATTR Value 10p
SYMBOL AD8561 368 256 R0
SYMATTR InstName U1
SYMBOL res 816 304 R90
WINDOW 0 0 56 VBottom 2
WINDOW 3 32 56 VTop 2
SYMATTR InstName R5
SYMATTR Value 1k
SYMBOL voltage -400 -224 R0
SYMATTR InstName V1
SYMATTR Value 5
SYMBOL voltage -272 -224 R0
SYMATTR InstName V2
SYMATTR Value -5
SYMBOL voltage -16 320 R0
SYMATTR InstName V3
SYMATTR Value PULSE(0 5 0 1u 1u 0 1)
SYMBOL voltage -144 -224 R0
SYMATTR InstName V4
SYMATTR Value 2.5
SYMBOL diode 736 272 R180
WINDOW 0 24 64 Left 2
WINDOW 3 24 0 Left 2
SYMATTR InstName D2
TEXT 8 -88 Left 2 !.tran 30us
