Version 4
SHEET 1 2764 1552
WIRE -480 240 -576 240
WIRE -432 240 -480 240
WIRE -304 240 -352 240
WIRE -240 240 -304 240
WIRE -160 240 -176 240
WIRE -576 336 -576 320
WIRE -480 336 -480 320
WIRE -480 336 -576 336
WIRE -432 336 -480 336
WIRE -304 336 -304 320
WIRE -304 336 -432 336
WIRE 704 336 640 336
WIRE 816 336 784 336
WIRE -432 352 -432 336
WIRE 736 400 704 400
WIRE 160 432 80 432
WIRE 256 432 240 432
WIRE 704 448 704 400
WIRE 432 464 240 464
WIRE 528 464 512 464
WIRE 640 464 640 336
WIRE 640 464 528 464
WIRE 672 464 640 464
WIRE 80 480 80 432
WIRE 816 480 816 336
WIRE 816 480 736 480
WIRE 976 480 896 480
WIRE 1072 480 976 480
WIRE 1344 480 1232 480
WIRE 160 496 128 496
WIRE 256 496 240 496
WIRE 672 496 656 496
WIRE 128 528 128 496
WIRE 160 528 128 528
WIRE 432 528 240 528
WIRE 1072 528 960 528
WIRE 1312 528 1248 528
WIRE -176 544 -304 544
WIRE -80 544 -176 544
WIRE 128 544 128 528
WIRE 128 544 0 544
WIRE -176 560 -176 544
WIRE 128 560 128 544
WIRE 160 560 128 560
WIRE 368 560 240 560
WIRE 528 560 528 464
WIRE 560 560 528 560
WIRE 704 560 704 512
WIRE 736 560 704 560
WIRE -304 576 -304 544
WIRE 128 592 128 560
WIRE 160 592 128 592
WIRE 256 592 240 592
WIRE 368 592 368 560
WIRE 960 608 960 528
WIRE 976 608 960 608
WIRE -544 624 -544 544
WIRE -176 672 -176 640
WIRE 1168 672 912 672
WIRE 1312 672 1312 528
WIRE 1312 672 1248 672
WIRE 912 736 912 672
WIRE 912 736 880 736
WIRE 432 752 432 528
WIRE 752 752 432 752
WIRE 816 752 752 752
WIRE 912 768 880 768
WIRE 928 768 912 768
WIRE 1040 768 1008 768
WIRE 1040 784 1040 768
WIRE -400 832 -544 832
WIRE -544 864 -544 832
WIRE -400 880 -400 832
WIRE -1712 896 -1728 896
WIRE -1600 896 -1616 896
WIRE -1424 896 -1440 896
WIRE -1296 896 -1312 896
WIRE -1136 896 -1152 896
WIRE 752 928 752 752
WIRE 800 928 752 928
WIRE 912 928 912 768
WIRE 912 928 880 928
WIRE -1728 944 -1728 896
WIRE -1616 944 -1616 896
WIRE -1440 944 -1440 896
WIRE -1312 944 -1312 896
WIRE -1152 944 -1152 896
WIRE -400 992 -400 960
WIRE -320 992 -400 992
WIRE -400 1008 -400 992
WIRE -240 1024 -240 1008
WIRE -1728 1056 -1728 1024
WIRE -1616 1056 -1616 1024
WIRE -1616 1056 -1728 1056
WIRE -1440 1056 -1440 1024
WIRE -1440 1056 -1616 1056
WIRE -1376 1056 -1440 1056
WIRE -1312 1056 -1312 1024
WIRE -1312 1056 -1376 1056
WIRE -1152 1056 -1152 1024
WIRE -1152 1056 -1312 1056
WIRE -320 1056 -320 992
WIRE -320 1056 -336 1056
WIRE -304 1056 -320 1056
WIRE -1376 1072 -1376 1056
WIRE -240 1120 -240 1104
WIRE -240 1120 -320 1120
WIRE -400 1152 -400 1104
WIRE -240 1152 -240 1120
WIRE -1248 1168 -1264 1168
WIRE -1120 1168 -1136 1168
WIRE -320 1200 -320 1120
WIRE -320 1200 -336 1200
WIRE -304 1200 -320 1200
WIRE -1264 1216 -1264 1168
WIRE -1136 1216 -1136 1168
WIRE -544 1280 -544 944
WIRE -400 1280 -400 1248
WIRE -400 1280 -544 1280
WIRE -320 1280 -400 1280
WIRE -240 1280 -240 1248
WIRE -240 1280 -320 1280
WIRE -320 1312 -320 1280
WIRE -1264 1328 -1264 1296
WIRE -1200 1328 -1264 1328
WIRE -1136 1328 -1136 1296
WIRE -1136 1328 -1200 1328
WIRE -1200 1344 -1200 1328
FLAG -160 240 TEST
IOPIN -160 240 BiDir
FLAG -432 352 0
FLAG -176 672 0
FLAG -304 656 0
FLAG 736 400 -5
IOPIN 736 400 BiDir
FLAG 736 560 +5
IOPIN 736 560 BiDir
FLAG 976 608 CLK
IOPIN 976 608 BiDir
FLAG 656 496 Vbb
IOPIN 656 496 BiDir
FLAG -1376 1072 0
FLAG -1424 896 +5
IOPIN -1424 896 BiDir
FLAG -1296 896 -5
IOPIN -1296 896 BiDir
FLAG -1600 896 Vbb
IOPIN -1600 896 BiDir
FLAG -1136 896 CLK
IOPIN -1136 896 BiDir
FLAG -1712 896 Vee
IOPIN -1712 896 BiDir
FLAG 1344 480 FF_out
IOPIN 1344 480 Out
FLAG 560 560 INT_out
IOPIN 560 560 Out
FLAG -544 704 0
FLAG 976 416 0
FLAG -320 1312 Vee
IOPIN -320 1312 BiDir
FLAG -1200 1344 0
FLAG -1248 1168 +15
IOPIN -1248 1168 BiDir
FLAG -1120 1168 -15
IOPIN -1120 1168 BiDir
FLAG 256 496 +5
IOPIN 256 496 BiDir
FLAG 256 432 -15
IOPIN 256 432 BiDir
FLAG 256 592 +15
IOPIN 256 592 BiDir
FLAG 80 480 0
FLAG 368 592 0
FLAG 848 784 +15
IOPIN 848 784 BiDir
FLAG 848 720 -15
IOPIN 848 720 BiDir
FLAG 1040 784 0
SYMBOL res 16 528 R90
WINDOW 0 0 56 VBottom 2
WINDOW 3 32 56 VTop 2
SYMATTR InstName R5
SYMATTR Value 100
SYMBOL res -464 336 R180
WINDOW 0 36 76 Left 2
WINDOW 3 36 40 Left 2
SYMATTR InstName R6
SYMATTR Value 50
SYMBOL res -448 256 R270
WINDOW 0 32 56 VTop 2
WINDOW 3 0 56 VBottom 2
SYMATTR InstName R7
SYMATTR Value 2.35k
SYMBOL res -320 224 R0
SYMATTR InstName R8
SYMATTR Value 50
SYMBOL voltage -576 224 M0
SYMATTR InstName V4
SYMATTR Value PULSE(0 0.5 10u 500n 50n 20u 1 1)
SYMBOL res -192 544 R0
SYMATTR InstName R9
SYMATTR Value 1Meg
SYMBOL cap -176 224 R90
WINDOW 0 0 32 VBottom 2
WINDOW 3 32 32 VTop 2
SYMATTR InstName C3
SYMATTR Value 2p
SYMBOL current -304 576 R0
SYMATTR InstName I1
SYMATTR Value 100n
SYMBOL res 912 464 R90
WINDOW 0 0 56 VBottom 2
WINDOW 3 32 56 VTop 2
SYMATTR InstName R3
SYMATTR Value 1k
SYMBOL res 416 480 R270
WINDOW 0 32 56 VTop 2
WINDOW 3 0 56 VBottom 2
SYMATTR InstName R4
SYMATTR Value 1k
SYMBOL dflop 1152 432 R0
SYMATTR InstName A1
SYMBOL res 1152 688 R270
WINDOW 0 32 56 VTop 2
WINDOW 3 0 56 VBottom 2
SYMATTR InstName R11
SYMATTR Value 50
SYMBOL res 688 352 R270
WINDOW 0 32 56 VTop 2
WINDOW 3 0 56 VBottom 2
SYMATTR InstName R15
SYMATTR Value 5Meg
SYMBOL voltage -1440 928 R0
SYMATTR InstName V5
SYMATTR Value 3.1
SYMBOL voltage -1312 928 R0
SYMATTR InstName V8
SYMATTR Value -3.1
SYMBOL voltage -1616 928 R0
SYMATTR InstName V9
SYMATTR Value 2.5
SYMBOL voltage -1152 928 R0
SYMATTR InstName V10
SYMATTR Value PULSE(0 5 0 0 0 100ns 200ns)
SYMBOL voltage -1728 928 R0
SYMATTR InstName V11
SYMATTR Value -1
SYMBOL current -544 624 R0
SYMATTR InstName I2
SYMATTR Value PWL file=current.txt
SYMBOL UniversalOpamp2 704 480 M180
SYMATTR InstName tlv3501
SYMBOL cap 992 480 R180
WINDOW 0 24 56 Left 2
WINDOW 3 24 8 Left 2
SYMATTR InstName C2
SYMATTR Value 50n
SYMBOL voltage -544 848 R0
SYMATTR InstName V1
SYMATTR Value 2
SYMBOL res -416 864 R0
SYMATTR InstName R2
SYMATTR Value 100Meg
SYMBOL npn -304 1008 R0
SYMATTR InstName Q1
SYMATTR Value H10
SYMBOL npn -336 1008 M0
SYMATTR InstName Q2
SYMATTR Value H10
SYMBOL npn -304 1152 R0
SYMATTR InstName Q3
SYMATTR Value H10
SYMBOL npn -336 1152 M0
SYMATTR InstName Q4
SYMATTR Value H10
SYMBOL IVC102M 192 512 R0
SYMATTR InstName U2
SYMBOL voltage -1264 1200 R0
SYMATTR InstName V2
SYMATTR Value 15
SYMBOL voltage -1136 1200 R0
SYMATTR InstName V3
SYMATTR Value -15
SYMBOL UniversalOpamp2 848 752 R180
SYMATTR InstName U1
SYMBOL res 1024 752 R90
WINDOW 0 0 56 VBottom 2
WINDOW 3 32 56 VTop 2
SYMATTR InstName R1
SYMATTR Value 1k
SYMBOL res 896 912 R90
WINDOW 0 0 56 VBottom 2
WINDOW 3 32 56 VTop 2
SYMATTR InstName R10
SYMATTR Value 4k
TEXT -576 112 Left 2 !.lib lm311.lib
TEXT 32 200 Left 2 !.tran 10000us
TEXT -568 64 Left 2 !.model SST112 NJF(Beta=5.695m Betatce=-0.5 Vto=-2.057 Vtotc=-2.5m Lambda=13m Is=205.2f Xti=3 Isr=1988f Nr=2 Alpha=20.98u N=1 Rd=1 Rs=1 Cgd=6.46p Cgs=5.74p Fc=0.5 Vk=123.7 M=407m Pb=1 Kf=75980f Af=1 Mfg=Linear_Systems)
TEXT -576 160 Left 2 !.lib tlv3501.lib
TEXT -832 1464 Left 2 !.model H10 NPN (Is=69.28E-18  Xti=3  Eg=1.11  Vaf=100  Bf=308.6  Ne=1.197  Ise=69.28E-18  Ikf=22.83m  Xtb=1.5  Br=1.11 Nc=2    Isc=0    Ikr=0    Rc=4    Cjc=1.042p Mjc=.2468    Vjc=.75    Fc=.5    Cje=1.52p    Mje=.3223    Vje=.75    Tr=1.558n Tf=135.8p  Itf=.27  Vtf=10  Xtf=30  Rb=10)
TEXT -824 1536 Left 2 !.model H81 PNP(Is=10f Xti=3 Eg=1.11 Vaf=100 Bf=133.8 Ise=1.678p Ne=2.159 Ikf=.1658 Nk=.901 Xtb=1.5 Var=100 Br=1 Isc=9.519n Nc=3.88 Ikr=5.813 Rc=7.838 Cjc=2.81p Mjc=.1615 Vjc=.8282 Fc=.5 Cje=2.695p Mje=.3214 Vje=.7026 Tr=11.32n  Tf=97.83p  Itf=69.29  Xtf=599u  Vtf=10)
TEXT -824 48 Left 2 !.lib LMP7721.LIB
